@<TRIPOS>MOLECULE
RES
324 0 1 0 1
SMALL
NO_CHARGES
@<TRIPOS>CRYSIN
  165.5692   165.4134    61.5210    90.0000    90.0000    90.0000 1 1
@<TRIPOS>ATOM
       1 C          -60.7914   -66.3425    42.9934 C             1 RES     
       2 C          -59.5400   -65.7898    43.1616 C             1 RES     
       3 C          -61.0457   -67.3622    42.1105 C             1 RES     
       4 C          -59.9693   -67.9369    41.4357 C             1 RES     
       5 C          -58.8233   -67.2614    41.4366 C             1 RES     
       6 C          -58.5687   -66.2346    42.2903 C             1 RES     
       7 N          -59.9117   -69.0075    40.5548 N             1 RES     
       8 N          -57.8910   -67.8972    40.6417 N             1 RES     
       9 C          -58.5842   -68.9313    40.0946 C             1 RES     
      10 C          -58.1214   -69.9403    39.1450 C             1 RES     
      11 C          -60.8332   -69.8793    40.0728 C             1 RES     
      12 N          -62.0078   -69.6602    40.4066 N             1 RES     
      13 C          -60.3239   -70.8852    39.0724 C             1 RES     
      14 C          -59.0242   -70.8441    38.5716 C             1 RES     
      15 C          -58.6147   -71.8057    37.7048 C             1 RES     
      16 C          -61.2618   -71.8049    38.5722 C             1 RES     
      17 C          -60.9180   -72.5602    37.4625 C             1 RES     
      18 C          -59.5732   -72.6623    37.0988 C             1 RES     
      19 C          -56.7982   -69.9615    38.8089 C             1 RES     
      20 C          -56.3540   -70.9517    37.9662 C             1 RES     
      21 C          -57.2669   -71.9004    37.4719 C             1 RES     
      22 C          -59.0191   -73.6190    36.0606 C             1 RES     
      23 C          -56.7825   -72.9137    36.6595 C             1 RES     
      24 N          -57.6735   -73.7165    36.0039 N             1 RES     
      25 N          -59.7838   -74.4079    35.4641 N             1 RES     
      26 N          -55.5241   -73.2093    36.4683 N             1 RES     
      27 H          -62.0215   -67.8975    42.2171 H             1 RES     
      28 H          -57.6010   -65.8331    42.4510 H             1 RES     
      29 H          -62.2787   -71.8217    38.9135 H             1 RES     
      30 H          -61.7821   -73.1111    36.9989 H             1 RES     
      31 H          -56.1001   -69.2092    39.3049 H             1 RES     
      32 H          -55.3136   -71.0183    37.6983 H             1 RES     
      33 C          -56.8441   -74.5117    35.2641 C             1 RES     
      34 C          -55.5524   -74.2215    35.6511 C             1 RES     
      35 C          -57.1867   -75.4855    34.3462 C             1 RES     
      36 C          -56.1091   -76.2678    33.8841 C             1 RES     
      37 C          -54.8243   -75.8846    34.1138 C             1 RES     
      38 C          -54.4980   -74.9128    35.0861 C             1 RES     
      39 N          -56.0562   -77.3208    32.9646 N             1 RES     
      40 N          -53.9260   -76.5267    33.3038 N             1 RES     
      41 C          -54.6926   -77.3669    32.6467 C             1 RES     
      42 C          -54.2704   -78.2452    31.5928 C             1 RES     
      43 C          -57.0609   -78.0899    32.4003 C             1 RES     
      44 N          -58.2393   -77.9704    32.6372 N             1 RES     
      45 C          -56.6028   -78.9076    31.1812 C             1 RES     
      46 C          -55.2283   -78.8923    30.8518 C             1 RES     
      47 C          -54.7705   -79.6269    29.7731 C             1 RES     
      48 C          -57.4069   -79.7060    30.4560 C             1 RES     
      49 C          -57.0306   -80.3277    29.3159 C             1 RES     
      50 C          -55.7212   -80.2790    28.9707 C             1 RES     
      51 C          -52.9129   -78.2868    31.2502 C             1 RES     
      52 C          -52.4765   -79.1165    30.2319 C             1 RES     
      53 C          -53.4239   -79.7674    29.4745 C             1 RES     
      54 C          -55.2854    79.5782    27.8010 C             1 RES     
      55 C          -52.9227    80.0857    28.3399 C             1 RES     
      56 N          -53.9473    79.4567    27.6534 N             1 RES     
      57 N          -55.9577    78.9191    27.1115 N             1 RES     
      58 N          -51.7707    79.7426    27.8876 N             1 RES     
      59 H          -58.2585   -75.7173    34.1231 H             1 RES     
      60 H          -53.4281   -74.5871    35.3196 H             1 RES     
      61 H          -58.4929   -79.7646    30.6631 H             1 RES     
      62 H          -57.7341    79.8843    28.5918 H             1 RES     
      63 H          -52.1980   -77.5899    31.7256 H             1 RES     
      64 H          -51.3511   -79.0969    29.9674 H             1 RES     
      65 C          -64.6913   -59.6991    52.3038 C             1 RES     
      66 C          -64.9331   -60.6077    51.3201 C             1 RES     
      67 C          -63.3740   -59.2514    52.5552 C             1 RES     
      68 C          -63.7929   -61.0664    50.6106 C             1 RES     
      69 C          -62.2796   -59.7743    51.8781 C             1 RES     
      70 C          -62.5000   -60.6800    50.8351 C             1 RES     
      71 C          -64.6392   -62.6589    48.9267 C             1 RES     
      72 N          -65.8517   -62.5907    49.1955 N             1 RES     
      73 C          -65.0636   -64.3519    47.1071 C             1 RES     
      74 C          -64.1786   -63.5189    47.8025 C             1 RES     
      75 C          -62.4111   -61.8997    49.2482 C             1 RES     
      76 N          -63.7556   -61.9193    49.5571 N             1 RES     
      77 C          -64.6107   -65.0026    46.0168 C             1 RES     
      78 C          -62.8297   -63.5232    47.4589 C             1 RES     
      79 C          -61.9352   -62.7076    48.1201 C             1 RES     
      80 N          -61.5945   -61.1097    49.9043 N             1 RES     
      81 C          -63.3069   -64.9947    45.5508 C             1 RES     
      82 C          -62.4049   -64.2179    46.3615 C             1 RES     
      83 C          -60.5958   -62.7037    47.7484 C             1 RES     
      84 C          -62.8847   -65.6752    44.3194 C             1 RES     
      85 C          -61.1267   -64.1712    45.8891 C             1 RES     
      86 H          -65.9245   -61.0122    50.9455 H             1 RES     
      87 C          -60.1794   -63.4581    46.6264 C             1 RES     
      88 C          -60.6588   -64.9492    44.7149 C             1 RES     
      89 N          -63.6884   -66.3430    43.7022 N             1 RES     
      90 N          -61.5341   -65.7450    44.0523 N             1 RES     
      91 H          -61.2907   -59.3135    51.9884 H             1 RES     
      92 H          -66.0960   -64.5401    47.5108 H             1 RES     
      93 N          -59.3865   -64.9728    44.2535 N             1 RES     
      94 H          -65.3388   -65.6283    45.4087 H             1 RES     
      95 H          -59.8944   -62.0375    48.2268 H             1 RES     
      96 H          -59.2123   -63.2679    46.2418 H             1 RES     
      97 H          -53.6851    78.8876    26.8464 H             1 RES     
      98 H          -51.5369    78.8156    28.3099 H             1 RES     
      99 N          -67.5433   -60.1142    53.2539 N             1 RES     
     100 C          -66.9144   -59.1197    53.4940 C             1 RES     
     101 N          -65.5984   -58.9054    53.0780 N             1 RES     
     102 C          -68.7081   -57.9662    54.8687 C             1 RES     
     103 C          -67.3692   -58.0730    54.4706 C             1 RES     
     104 H          -69.1937   -58.8041    54.6946 H             1 RES     
     105 C          -64.6527   -58.1875    53.7656 C             1 RES     
     106 N          -63.3383   -58.2251    53.3997 N             1 RES     
     107 C          -69.1954   -56.8138    55.5707 C             1 RES     
     108 C          -66.4945   -57.0792    54.9292 C             1 RES     
     109 C          -65.1628   -57.1172    54.6444 C             1 RES     
     110 H          -70.2435   -56.7132    55.8728 H             1 RES     
     111 C          -68.2825   -55.8056    55.9096 C             1 RES     
     112 C          -66.9293   -55.9043    55.6208 C             1 RES     
     113 C          -64.2523   -56.1229    55.0309 C             1 RES     
     114 C          -68.7474   -54.5275    56.5202 C             1 RES     
     115 N          -69.9319   -54.3282    56.8247 N             1 RES     
     116 C          -66.0588   -54.8284    55.9052 C             1 RES     
     117 C          -64.6808   -54.9643    55.6410 C             1 RES     
     118 H          -63.2009   -56.3974    54.8903 H             1 RES     
     119 C          -66.5293   -53.5776    56.3598 C             1 RES     
     120 N          -67.9097   -53.5196    56.6339 N             1 RES     
     121 C          -68.0338   -52.1605    56.8047 C             1 RES     
     122 C          -69.1531   -51.3306    57.0746 C             1 RES     
     123 N          -65.8205   -52.4306    56.3288 N             1 RES     
     124 H          -63.8682   -54.1889    55.7754 H             1 RES     
     125 C          -66.7564   -51.5557    56.6869 C             1 RES     
     126 H          -70.0847   -51.7653    57.3138 H             1 RES     
     127 N          -71.7207   -49.9189    56.9308 N             1 RES     
     128 C          -68.8649   -49.9510    56.8855 C             1 RES     
     129 C          -71.1240   -48.8767    56.9764 C             1 RES     
     130 C          -66.5703   -50.1647    56.6737 C             1 RES     
     131 C          -67.6853   -49.3921    56.6339 C             1 RES     
     132 N          -69.7781   -48.8615    57.0133 N             1 RES     
     133 C          -73.1943   -47.3878    57.1243 C             1 RES     
     134 C          -71.7742   -47.5680    56.9954 C             1 RES     
     135 H          -73.7327   -48.3268    57.1865 H             1 RES     
     136 C          -68.9654   -47.7717    56.7459 C             1 RES     
     137 C          -73.8031   -46.2225    56.9474 C             1 RES     
     138 N          -67.6708   -48.0542    56.5405 N             1 RES     
     139 C          -71.0051   -46.3811    56.6847 C             1 RES     
     140 H          -65.5722   -49.7714    56.5742 H             1 RES     
     141 C          -69.6054   -46.4923    56.6309 C             1 RES     
     142 C          -73.0458   -45.0259    56.6445 C             1 RES     
     143 H          -74.9398   -46.1325    56.9502 H             1 RES     
     144 C          -71.6864   -45.1627    56.6245 C             1 RES     
     145 C          -68.8019   -45.3659    56.5186 C             1 RES     
     146 C          -73.6956   -43.7029    56.2601 C             1 RES     
     147 N          -74.9155   -43.6249    56.1118 N             1 RES     
     148 C          -70.8479   -44.0277    56.4274 C             1 RES     
     149 C          -69.4414   -44.1278    56.3881 C             1 RES     
     150 C          -71.4558   -42.7685    56.1221 C             1 RES     
     151 N          -72.8352   -42.7110    56.0279 N             1 RES     
     152 H          -67.7234   -45.3607    56.5446 H             1 RES     
     153 C          -72.9709   -41.3271    55.5906 C             1 RES     
     154 C          -74.1147   -40.5466    55.5184 C             1 RES     
     155 N          -70.7715   -41.7927    55.5122 N             1 RES     
     156 C          -71.7005   -40.8731    55.2904 C             1 RES     
     157 H          -68.8736   -43.1502    56.3657 H             1 RES     
     158 N          -76.7986   -39.3229    54.5632 N             1 RES     
     159 H          -75.1411   -40.9161    55.8178 H             1 RES     
     160 C          -73.8791   -39.2907    54.9504 C             1 RES     
     161 C          -76.1188   -38.3264    54.3027 C             1 RES     
     162 C          -71.4771   -39.5818    54.8751 C             1 RES     
     163 C          -72.5639   -38.7767    54.6692 C             1 RES     
     164 N          -74.7689   -38.3201    54.5012 N             1 RES     
     165 C          -78.0793   -37.0408    53.3519 C             1 RES     
     166 C          -76.6926   -37.1418    53.6407 C             1 RES     
     167 C          -73.9078   -37.3385    54.0278 C             1 RES     
     168 H          -78.8076   -37.8570    53.5510 H             1 RES     
     169 N          -72.5813   -37.5705    54.1839 N             1 RES     
     170 C          -78.6202   -35.9198    52.6720 C             1 RES     
     171 C          -75.8509   -36.1165    53.2454 C             1 RES     
     172 H          -70.4670   -39.1568    54.6882 H             1 RES     
     173 C          -74.4634   -36.1581    53.4297 C             1 RES     
     174 C          -77.7535   -34.9159    52.2355 C             1 RES     
     175 C          -76.3829   -35.1032    52.4201 C             1 RES     
     176 C          -73.6820   -35.1667    52.8284 C             1 RES     
     177 H          -79.6861   -35.9162    52.3422 H             1 RES     
     178 C          -78.3342   -33.8364    51.3699 C             1 RES     
     179 C          -75.6028   -34.1294    51.8513 C             1 RES     
     180 N          -79.5098   -33.7568    51.1304 N             1 RES     
     181 C          -74.2375   -34.1140    52.2194 C             1 RES     
     182 H          -72.5932   -35.2155    52.7232 H             1 RES     
     183 C          -76.0928   -33.0007    51.0260 C             1 RES     
     184 N          -77.4472   -32.9348    50.8598 N             1 RES     
     185 C          -77.5321   -32.1620    49.7340 C             1 RES     
     186 N          -75.3377   -32.2286    50.2218 N             1 RES     
     187 C          -78.6307   -31.9149    48.8711 C             1 RES     
     188 H          -73.7393   -33.3265    51.8132 H             1 RES     
     189 C          -76.2460   -31.7910    49.3449 C             1 RES     
     190 H          -79.6111   -32.2413    49.1500 H             1 RES     
     191 C          -78.3071   -31.2645    47.7056 C             1 RES     
     192 C          -75.9277   -31.0510    48.1677 C             1 RES     
     193 C          -76.9846   -30.8458    47.3365 C             1 RES     
     194 H          -74.9193   -30.8434    47.9309 H             1 RES     
     195 N           79.5668   -31.8327    47.2897 N             1 RES     
     196 C           80.2912   -31.3953    46.3974 C             1 RES     
     197 N          -79.1445   -31.0749    46.6197 N             1 RES     
     198 C          -78.2196   -30.4877    45.7258 C             1 RES     
     199 N          -76.9362   -30.3105    46.1211 N             1 RES     
     200 C           79.8280   -31.2034    44.9582 C             1 RES     
     201 C           78.6163   -31.7392    44.5583 C             1 RES     
     202 C          -78.7017   -30.1969    44.3864 C             1 RES     
     203 C          -79.9898   -30.6429    44.0340 C             1 RES     
     204 C           78.1872   -31.7203    43.1829 C             1 RES     
     205 C          -77.9407   -29.5104    43.4856 C             1 RES     
     206 H           77.9177   -32.2419    45.2561 H             1 RES     
     207 C           80.3003   -30.5299    42.7089 C             1 RES     
     208 C           79.0465   -31.1146    42.2803 C             1 RES     
     209 C          -78.3082   -29.4630    42.1221 C             1 RES     
     210 C          -79.5513   -30.0836    41.7092 C             1 RES     
     211 C           78.5475   -30.9431    40.8595 C             1 RES     
     212 H           77.2561   -32.1054    42.9249 H             1 RES     
     213 N           77.5258   -31.4760    40.4751 N             1 RES     
     214 H          -76.9821   -29.1429    43.8227 H             1 RES     
     215 C          -80.0628   -29.7929    40.3896 C             1 RES     
     216 N           79.3603   -30.2444    40.0780 N             1 RES     
     217 C           79.2813   -29.8489    38.7649 C             1 RES     
     218 N          -79.3487   -29.0457    39.4978 N             1 RES     
     219 C           78.2847   -30.0657    37.8438 C             1 RES     
     220 C          -80.2689   -29.0501    38.4846 C             1 RES     
     221 H          -77.6589   -29.0809    41.3935 H             1 RES     
     222 C           78.4588   -29.5375    36.6157 C             1 RES     
     223 N           76.3214   -31.3796    35.8829 N             1 RES     
     224 C          -80.1916   -28.3345    37.2989 C             1 RES     
     225 C           76.7608   -30.5417    35.0703 C             1 RES     
     226 C           79.5574   -28.6987    36.2873 C             1 RES     
     227 H           77.4334   -30.7312    38.1029 H             1 RES     
     228 N           77.7104   -29.7244    35.4305 N             1 RES     
     229 C           75.1364   -31.1752    33.2362 C             1 RES     
     230 C           76.2273   -30.4195    33.6735 C             1 RES     
     231 C           78.4670   -28.9152    34.6138 C             1 RES     
     232 N           79.4955   -28.2040    35.0491 N             1 RES     
     233 C           74.8007   -31.0716    31.8359 C             1 RES     
     234 C           76.8808   -29.5163    32.7909 C             1 RES     
     235 C           77.9368   -28.7454    33.2311 C             1 RES     
     236 H           74.6557   -31.7932    33.9430 H             1 RES     
     237 H          -79.2778   -27.8476    37.0424 H             1 RES     
     238 C           75.5183   -30.2338    30.9547 C             1 RES     
     239 C           76.4975   -29.4039    31.4625 C             1 RES     
     240 C           78.5932   -27.7943    32.3677 C             1 RES     
     241 C           75.0885   -30.2191    29.5191 C             1 RES     
     242 C           77.0375   -28.4596    30.5841 C             1 RES     
     243 N           74.1638   -30.8632    29.0884 N             1 RES     
     244 C           78.1526   -27.6798    31.0622 C             1 RES     
     245 H           73.9923   -31.7380    31.5280 H             1 RES     
     246 C           76.6300   -28.4077    29.2088 C             1 RES     
     247 N           75.8078   -29.4097    28.7509 N             1 RES     
     248 C           75.6331   -29.0482    27.4334 C             1 RES     
     249 C           74.8891   -29.5816    26.3585 C             1 RES     
     250 H           79.4521   -27.1827    32.7532 H             1 RES     
     251 N           76.9082   -27.3761    28.3892 N             1 RES     
     252 C           76.2917   -27.7979    27.2546 C             1 RES     
     253 C           74.9796   -28.9133    25.0978 C             1 RES     
     254 N           73.8216   -31.3489    23.9890 N             1 RES     
     255 C           76.2887   -27.0890    26.0647 C             1 RES     
     256 C           73.9910   -30.3373    23.2788 C             1 RES     
     257 H           78.5383   -26.9317    30.3299 H             1 RES     
     258 C           75.6556   -27.6631    25.0479 C             1 RES     
     259 H           74.3399   -30.5548    26.5075 H             1 RES     
     260 N           74.4697   -29.2369    23.8519 N             1 RES     
     261 C           72.8990   -31.2032    21.1156 C             1 RES     
     262 C           73.5879   -30.2129    21.8110 C             1 RES     
     263 C           74.8435   -28.0597    23.1675 C             1 RES     
     264 N           75.4919   -27.0741    23.8584 N             1 RES     
     265 C           72.4935   -31.0809    19.7551 C             1 RES     
     266 C           73.9177   -29.0220    21.0865 C             1 RES     
     267 C           74.6733   -28.0258    21.7033 C             1 RES     
     268 H           72.7252   -32.1345    21.6656 H             1 RES     
     269 C           72.6523   -29.8663    19.1324 C             1 RES     
     270 H           76.7818   -26.0988    25.9654 H             1 RES     
     271 C           73.4935   -28.8929    19.7453 C             1 RES     
     272 C           74.8330   -26.8170    20.9967 C             1 RES     
     273 C           72.1169   -29.7097    17.7339 C             1 RES     
     274 C           73.6364   -27.6820    19.0464 C             1 RES     
     275 C           74.4306   -26.6826    19.6594 C             1 RES     
     276 H           71.9765   -31.8392    19.2388 H             1 RES     
     277 N           71.6548   -30.5968    17.0953 N             1 RES     
     278 C           73.0230   -27.4442    17.7813 C             1 RES     
     279 N           72.2703   -28.4796    17.1866 N             1 RES     
     280 H           75.1706   -25.9132    21.4812 H             1 RES     
     281 C           72.0732   -27.9617    15.8699 C             1 RES     
     282 N           73.0649   -26.3223    17.0590 N             1 RES     
     283 C           71.6732   -28.5758    14.6521 C             1 RES     
     284 C           72.5328   -26.6846    15.8745 C             1 RES     
     285 H           74.6272   -25.6884    19.1305 H             1 RES     
     286 C           72.4791   -25.8560    14.7893 C             1 RES     
     287 C           71.7022   -27.8147    13.5238 C             1 RES     
     288 N           70.8191   -30.2090    12.0381 N             1 RES     
     289 H           71.3396   -29.6916    14.5735 H             1 RES     
     290 C           72.0053   -26.4530    13.6336 C             1 RES     
     291 C           71.0327   -29.1768    11.5211 C             1 RES     
     292 N           71.3649   -28.0571    12.2033 N             1 RES     
     293 C           71.5747   -26.7932    11.7058 C             1 RES     
     294 N           71.9687   -25.8513    12.4880 N             1 RES     
     295 C           71.0194   -28.9861    10.0158 C             1 RES     
     296 H           72.7926   -24.8185    14.6962 H             1 RES     
     297 C           70.9239   -30.1255     9.1502 C             1 RES     
     298 C           71.4349   -26.6314    10.3003 C             1 RES     
     299 C           71.2312   -27.7305     9.4598 C             1 RES     
     300 H           70.8959   -31.1479     9.4641 H             1 RES     
     301 C           70.9895   -30.0015     7.7528 C             1 RES     
     302 C           71.5570   -25.3614     9.7057 C             1 RES     
     303 C           71.1811   -27.5582     8.0765 C             1 RES     
     304 C           71.0882   -28.6811     7.2057 C             1 RES     
     305 C           71.4557   -25.1520     8.3330 C             1 RES     
     306 C           71.1973   -26.2987     7.4893 C             1 RES     
     307 H           71.7080   -24.5089    10.2904 H             1 RES     
     308 H           70.8525   -30.8573     7.1032 H             1 RES     
     309 C           70.9719   -28.4979     5.7422 C             1 RES     
     310 N           70.9362   -29.4741     4.9736 N             1 RES     
     311 C           71.0481   -26.0830     6.0749 C             1 RES     
     312 N           71.1284   -27.2013     5.3081 N             1 RES     
     313 H           71.5233   -24.1404     8.0039 H             1 RES     
     314 N           70.9093   -24.8693     5.4403 N             1 RES     
     315 C           71.1448   -26.6355     4.0176 C             1 RES     
     316 C           70.9663   -25.2304     4.1705 C             1 RES     
     317 C           71.2021   -27.2974     2.8579 C             1 RES     
     318 C           71.0048   -24.4698     3.0095 C             1 RES     
     319 H           71.2926   -28.3632     2.8611 H             1 RES     
     320 C           71.3963   -26.4733     1.6849 C             1 RES     
     321 C           71.2112   -25.0774     1.7513 C             1 RES     
     322 H           70.9873   -23.3786     2.9665 H             1 RES     
     323 H           71.7241   -27.0204     0.7928 H             1 RES     
     324 H           71.3527   -24.3774     0.8912 H             1 RES     
@<TRIPOS>BOND
@<TRIPOS>SUBSTRUCTURE
       1 RES             1 RESIDUE    0 **** ROOT      0
