@<TRIPOS>MOLECULE
Generated by LammpsCT
 324 392 0 0 0
SMALL
GASTEIGER

@<TRIPOS>ATOM
      1 N         -32.6532   20.5612    5.4910 N.ar    1  UNL1       -0.2270
      2 C         -31.8679   21.6083    5.5365 C.ar    1  UNL1        0.0922
      3 C         -32.4498   22.8372    5.5314 C.ar    1  UNL1        0.0789
      4 H         -34.3561   18.6920    5.3477 H       1  UNL1        0.0625
      5 N         -33.7875   22.6570    5.3430 N.ar    1  UNL1       -0.2583
      6 C         -33.8479   21.2719    5.4204 C.ar    1  UNL1        0.1493
      7 C         -35.2131   19.2365    5.5975 C.ar    1  UNL1       -0.0498
      8 C         -35.1020   20.6334    5.5587 C.ar    1  UNL1        0.0264
      9 C         -36.1842   21.4014    5.9450 C.ar    1  UNL1        0.0065
     10 C         -34.8810   23.4668    5.4114 C.ar    1  UNL1        0.2651
     11 C         -36.1353   22.8078    5.8539 C.ar    1  UNL1        0.0483
     12 C         -31.6927   24.0271    5.7827 C.ar    1  UNL1       -0.0095
     13 H         -32.1664   25.0163    5.8492 H       1  UNL1        0.0660
     14 O         -34.7837   24.6410    5.1376 O.2     1  UNL1       -0.2666
     15 N         -40.3858   17.7937   12.2140 N.ar    1  UNL1       -0.2583
     16 H         -39.6255   15.2709    8.8815 H       1  UNL1        0.0661
     17 C         -39.9827   16.2658    9.1287 C.ar    1  UNL1       -0.0067
     18 C         -40.4046   16.5481   10.3998 C.ar    1  UNL1        0.0922
     19 N         -38.5960   17.3726    7.4355 N.ar    1  UNL1       -0.2270
     20 C         -39.6400   17.3888    8.3567 C.ar    1  UNL1        0.0922
     21 N         -40.3043   15.6396   11.3756 N.ar    1  UNL1       -0.2270
     22 C         -40.5545   17.8157   10.8192 C.ar    1  UNL1        0.0789
     23 H         -36.3716   17.5354    6.2830 H       1  UNL1        0.0625
     24 C         -38.5047   18.6984    7.1849 C.ar    1  UNL1        0.1493
     25 C         -40.1397   18.6498    8.6252 C.ar    1  UNL1        0.0789
     26 C         -40.5063   18.8918    9.9266 C.ar    1  UNL1       -0.0095
     27 C         -38.4038   22.8962    6.6687 C.ar    1  UNL1       -0.0481
     28 C         -38.3622   21.5168    6.8947 C.ar    1  UNL1        0.0483
     29 N         -39.4276   19.5332    7.7768 N.ar    1  UNL1       -0.2583
     30 H         -40.6094   19.8966   10.2811 H       1  UNL1        0.0660
     31 C         -39.4556   20.8706    7.6814 C.ar    1  UNL1        0.2651
     32 O         -40.4796   21.4198    8.1110 O.2     1  UNL1       -0.2666
     33 C         -37.3703   19.3590    6.5849 C.ar    1  UNL1        0.0264
     34 C         -37.3485   20.7479    6.3434 C.ar    1  UNL1        0.0065
     35 H         -39.1919   23.5040    7.1206 H       1  UNL1        0.0625
     36 C         -37.2301   23.5670    6.2818 C.ar    1  UNL1       -0.0481
     37 C         -36.2616   18.6318    6.2131 C.ar    1  UNL1       -0.0498
     38 H         -37.2416   24.6501    6.3458 H       1  UNL1        0.0625
     39 H         -40.0141   13.4245   15.9334 H       1  UNL1        0.0625
     40 N         -38.0459   13.4989   17.7201 N.ar    1  UNL1       -0.2270
     41 C         -40.1902   14.7957   14.3440 C.ar    1  UNL1       -0.0498
     42 C         -39.7533   14.3866   15.5653 C.ar    1  UNL1       -0.0498
     43 C         -38.9735   15.2652   16.3047 C.ar    1  UNL1        0.0264
     44 C         -38.1542   14.8296   17.4105 C.ar    1  UNL1        0.1493
     45 C         -38.7864   16.5643   15.8477 C.ar    1  UNL1        0.0065
     46 C         -39.9508   16.0594   13.8090 C.ar    1  UNL1        0.0264
     47 C         -39.2735   16.9685   14.6302 C.ar    1  UNL1        0.0065
     48 H         -40.8437   14.1134   13.8626 H       1  UNL1        0.0625
     49 C         -37.9906   17.4769   16.6266 C.ar    1  UNL1        0.0483
     50 C         -39.0765   18.2613   14.1701 C.ar    1  UNL1        0.0483
     51 C         -37.1749   16.9593   17.8061 C.ar    1  UNL1        0.2651
     52 N         -37.3204   15.6918   18.0626 N.ar    1  UNL1       -0.2583
     53 C         -40.3833   16.4508   12.4926 C.ar    1  UNL1        0.1493
     54 C         -37.8653   18.7830   16.1779 C.ar    1  UNL1       -0.0481
     55 C         -39.6967   18.6758   12.8967 C.ar    1  UNL1        0.2651
     56 C         -38.4830   19.2195   15.0161 C.ar    1  UNL1       -0.0481
     57 H         -38.4906   20.2405   14.7746 H       1  UNL1        0.0625
     58 H         -37.2436   19.5243   16.7766 H       1  UNL1        0.0625
     59 O         -39.3776   19.7916   12.4878 O.2     1  UNL1       -0.2666
     60 H         -37.0824   11.5161   19.1969 H       1  UNL1        0.0661
     61 C         -32.5779   10.3502   24.2791 C.ar    1  UNL1       -0.0498
     62 H         -34.2138   10.2604   22.9391 H       1  UNL1        0.0625
     63 C         -33.3540   10.8028   23.2475 C.ar    1  UNL1       -0.0498
     64 N         -34.9788   11.7788   20.9320 N.ar    1  UNL1       -0.2270
     65 C         -33.1246   12.0000   22.5948 C.ar    1  UNL1        0.0264
     66 C         -37.0059   13.5344   18.5341 C.ar    1  UNL1        0.0922
     67 H         -31.0367   16.0228   22.9467 H       1  UNL1        0.0625
     68 C         -36.5514   12.4645   19.2677 C.ar    1  UNL1       -0.0067
     69 C         -31.3216   12.4203   24.2652 C.ar    1  UNL1        0.0065
     70 O         -36.5077   17.6368   18.5526 O.2     1  UNL1       -0.2666
     71 C         -36.5297   14.7850   18.8060 C.ar    1  UNL1        0.0789
     72 C         -35.4910   12.6794   20.0974 C.ar    1  UNL1        0.0922
     73 C         -34.0078   12.4928   21.5716 C.ar    1  UNL1        0.1493
     74 C         -31.1887   15.0260   23.3467 C.ar    1  UNL1       -0.0481
     75 C         -35.3131   15.0070   19.4771 C.ar    1  UNL1       -0.0095
     76 C         -31.9965   14.1389   22.7155 C.ar    1  UNL1        0.0483
     77 C         -32.1380   12.8668   23.1923 C.ar    1  UNL1        0.0065
     78 H         -34.8760   15.9432   19.6365 H       1  UNL1        0.0660
     79 C         -34.8419   13.9070   20.1677 C.ar    1  UNL1        0.0789
     80 N         -33.7576   13.7595   21.0946 N.ar    1  UNL1       -0.2583
     81 C         -32.8782   14.6455   21.6501 C.ar    1  UNL1        0.2651
     82 O         -32.7521   15.7479   21.1389 O.2     1  UNL1       -0.2666
     83 C         -31.4635   11.0852   24.7159 C.ar    1  UNL1        0.0264
     84 H         -32.7891    9.4124   24.7452 H       1  UNL1        0.0625
     85 N         -30.6571    9.3681   26.2458 N.ar    1  UNL1       -0.2271
     86 C         -30.5024   21.4822    5.8499 C.ar    1  UNL1       -0.0067
     87 H         -30.1322   20.4158    6.0072 H       1  UNL1        0.0661
     88 C         -30.3684   23.8590    6.1617 C.ar    1  UNL1        0.0789
     89 C         -29.8182   22.5815    6.2448 C.ar    1  UNL1        0.0922
     90 N         -28.6691   22.5569    6.8909 N.ar    1  UNL1       -0.2270
     91 C         -26.6105   23.5342    8.6710 C.ar    1  UNL1       -0.0501
     92 H         -26.5709   22.5504    8.3468 H       1  UNL1        0.0625
     93 H         -24.6966   23.3920    9.7278 H       1  UNL1        0.0622
     94 C         -25.5684   24.0304    9.4202 C.ar    1  UNL1       -0.0535
     95 C         -28.5807   23.8144    7.3215 C.ar    1  UNL1        0.1493
     96 C         -27.6435   24.3517    8.1932 C.ar    1  UNL1        0.0264
     97 O         -30.5619   26.7444    6.8141 O.2     1  UNL1       -0.2666
     98 N         -29.5401   24.7290    6.9025 N.ar    1  UNL1       -0.2583
     99 C         -25.5602   25.3795    9.7790 C.ar    1  UNL1        0.0085
    100 C         -27.5993   25.7005    8.4754 C.ar    1  UNL1        0.0062
    101 C         -29.6232   26.0563    7.1723 C.ar    1  UNL1        0.2651
    102 C         -26.5771   26.2036    9.2699 C.ar    1  UNL1        0.0026
    103 H         -27.5816   29.5215    9.3403 H       1  UNL1        0.0625
    104 C         -28.5948   26.5518    8.0455 C.ar    1  UNL1        0.0483
    105 C         -28.5436   27.9336    8.3393 C.ar    1  UNL1       -0.0481
    106 H         -29.2660   28.6800    7.9451 H       1  UNL1        0.0625
    107 C         -27.4820   28.4029    9.0795 C.ar    1  UNL1       -0.0483
    108 C         -26.5042   27.5484    9.6077 C.ar    1  UNL1        0.0454
    109 C         -25.3131   28.0964   10.3979 C.2     1  UNL1        0.2535
    110 O         -25.1430   29.2910   10.4196 O.2     1  UNL1       -0.2695
    111 C         -24.5834   25.8160   10.7113 C.3     1  UNL1        0.1959
    112 N         -24.5587   27.1868   11.0461 N.am    1  UNL1       -0.2345
    113 H         -22.6989   29.3355   11.9106 H       1  UNL1        0.0658
    114 C         -22.4712   28.2611   12.1334 C.ar    1  UNL1       -0.0122
    115 C         -23.0468   25.8820   11.9601 C.ar    1  UNL1        0.0743
    116 N         -23.8672   24.9778   11.4670 N.pl3   1  UNL1       -0.2139
    117 C         -23.3439   27.2138   11.7702 C.ar    1  UNL1        0.0639
    118 H         -21.6237   24.5451   12.7598 H       1  UNL1        0.0659
    119 C         -21.2852   27.8158   12.7524 C.ar    1  UNL1        0.0787
    120 N         -19.8242   26.2268   13.4255 N.ar    1  UNL1       -0.2270
    121 N         -20.2385   28.5123   13.2849 N.ar    1  UNL1       -0.2583
    122 C         -19.9122   29.8444   13.2298 C.ar    1  UNL1        0.2651
    123 C         -21.0189   26.5141   12.9900 C.ar    1  UNL1        0.0920
    124 C         -19.3921   27.5073   13.7000 C.ar    1  UNL1        0.1493
    125 C         -21.8919   25.5128   12.6419 C.ar    1  UNL1       -0.0097
    126 C         -18.5200   30.2724   13.7948 C.ar    1  UNL1        0.0483
    127 O         -20.5492   30.6057   12.5820 O.2     1  UNL1       -0.2666
    128 N         -13.8005   30.2884   15.4046 N.ar    1  UNL1       -0.2583
    129 C         -18.1004   27.8773   14.2307 C.ar    1  UNL1        0.0264
    130 H         -17.6170   25.9010   14.8771 H       1  UNL1        0.0625
    131 C         -17.6553   29.2511   14.2192 C.ar    1  UNL1        0.0065
    132 C         -17.2517   26.9195   14.7117 C.ar    1  UNL1       -0.0498
    133 C         -15.9282   27.2901   15.0672 C.ar    1  UNL1       -0.0498
    134 C         -15.4534   28.6256   14.9814 C.ar    1  UNL1        0.0264
    135 H         -15.2877   26.4707   15.3744 H       1  UNL1        0.0625
    136 C         -14.1011   28.9772   15.2412 C.ar    1  UNL1        0.1493
    137 C         -16.3584   29.5875   14.6423 C.ar    1  UNL1        0.0065
    138 N         -13.1670   28.0209   15.2380 N.ar    1  UNL1       -0.2270
    139 C         -12.3512   30.1750   15.5189 C.ar    1  UNL1        0.0789
    140 C         -12.1047   28.8289   15.5096 C.ar    1  UNL1        0.0922
    141 H         -10.3854   27.3529   15.7501 H       1  UNL1        0.0661
    142 C         -10.8120   28.3940   15.6864 C.ar    1  UNL1       -0.0067
    143 C          -9.8738   29.4322   15.7867 C.ar    1  UNL1        0.0922
    144 N          -8.5777   29.1811   15.9109 N.ar    1  UNL1       -0.2270
    145 C          -8.1107   30.4099   16.2454 C.ar    1  UNL1        0.1493
    146 N          -1.7887   30.3996   17.3267 N.ar    1  UNL1       -0.2270
    147 H          -6.0159   28.9270   15.4790 H       1  UNL1        0.0625
    148 C          -5.7480   29.8935   16.0201 C.ar    1  UNL1       -0.0498
    149 H          -3.6588   29.3042   15.9527 H       1  UNL1        0.0625
    150 C          -4.3847   30.1366   16.1834 C.ar    1  UNL1       -0.0498
    151 C         -30.3660   14.6477   24.4142 C.ar    1  UNL1       -0.0481
    152 H         -29.7367    7.4738   28.2042 H       1  UNL1        0.0639
    153 C         -29.2940    8.4267   28.1159 C.ar    1  UNL1       -0.0342
    154 C         -28.2719    8.6763   29.0534 C.ar    1  UNL1       -0.0596
    155 H         -27.9880    7.9110   29.7163 H       1  UNL1        0.0618
    156 C         -27.5968    9.9055   29.0228 C.ar    1  UNL1       -0.0597
    157 H         -26.8627   10.1360   29.7872 H       1  UNL1        0.0618
    158 C         -29.0456   10.6354   27.1890 C.ar    1  UNL1        0.0768
    159 C         -27.9217   10.8536   28.0288 C.ar    1  UNL1       -0.0356
    160 H         -27.3641   11.7689   28.0136 H       1  UNL1        0.0639
    161 C         -29.6905    9.4220   27.2241 C.ar    1  UNL1        0.0901
    162 N         -29.6712   11.4643   26.2392 N.ar    1  UNL1       -0.2584
    163 C         -30.4929   10.5681   25.6662 C.ar    1  UNL1        0.1493
    164 O         -28.6985   13.4749   26.5145 O.2     1  UNL1       -0.2666
    165 C         -29.4885   12.7464   25.9150 C.ar    1  UNL1        0.2651
    166 C         -30.3810   13.3048   24.8027 C.ar    1  UNL1        0.0483
    167 H         -29.7147   15.4014   24.8737 H       1  UNL1        0.0625
    168 H         -18.6907   32.4233   13.4081 H       1  UNL1        0.0625
    169 C         -18.0272   31.5953   13.7803 C.ar    1  UNL1       -0.0481
    170 C         -16.8207   31.9904   14.3001 C.ar    1  UNL1       -0.0481
    171 H         -16.5513   33.0573   14.3253 H       1  UNL1        0.0625
    172 O         -14.3676   32.4881   15.4537 O.2     1  UNL1       -0.2666
    173 C         -14.6454   31.3140   15.2224 C.ar    1  UNL1        0.2651
    174 C         -15.9762   30.9463   14.6492 C.ar    1  UNL1        0.0483
    175 C          -8.7082   32.7821   16.6369 C.ar    1  UNL1        0.2651
    176 O          -9.5797   33.6603   16.6545 O.2     1  UNL1       -0.2666
    177 H         -11.9212   32.2500   16.0333 H       1  UNL1        0.0660
    178 C          -7.2699   33.0605   16.9843 C.ar    1  UNL1        0.0483
    179 C          -6.8193   34.2911   17.4596 C.ar    1  UNL1       -0.0481
    180 H          -7.5742   35.0634   17.6082 H       1  UNL1        0.0625
    181 N          -8.9413   31.4211   16.3282 N.ar    1  UNL1       -0.2583
    182 C         -11.5154   31.2220   15.8617 C.ar    1  UNL1       -0.0095
    183 C          -6.2812   32.0361   16.8301 C.ar    1  UNL1        0.0065
    184 C         -10.1533   30.7462   15.9811 C.ar    1  UNL1        0.0789
    185 C          -6.7282   30.7999   16.3182 C.ar    1  UNL1        0.0264
    186 N          -2.3001   32.6995   17.6319 N.ar    1  UNL1       -0.2583
    187 C          -4.9325   32.3117   17.0440 C.ar    1  UNL1        0.0065
    188 C          -4.6057   33.5366   17.5751 C.ar    1  UNL1        0.0483
    189 C          -3.1756   33.7070   17.9792 C.ar    1  UNL1        0.2651
    190 C          -5.4699   34.5778   17.7749 C.ar    1  UNL1       -0.0481
    191 C          -0.9890   32.4503   18.0209 C.ar    1  UNL1        0.0789
    192 H          -5.0061   35.5249   18.1141 H       1  UNL1        0.0625
    193 C          -2.6839   31.3985   17.2314 C.ar    1  UNL1        0.1493
    194 C          -0.7326   31.0988   17.7787 C.ar    1  UNL1        0.0922
    195 C          -4.0152   31.2908   16.7817 C.ar    1  UNL1        0.0264
    196 O          -2.8197   34.6629   18.6778 O.2     1  UNL1       -0.2666
    197 H          -0.2712   34.3646   18.6523 H       1  UNL1        0.0660
    198 C          -0.0062   33.2843   18.5716 C.ar    1  UNL1       -0.0095
    199 C           0.4695   30.5684   18.1208 C.ar    1  UNL1       -0.0067
    200 H           0.6441   29.5976   17.8019 H       1  UNL1        0.0661
    201 H           5.2355   30.3497   19.8788 H       1  UNL1        0.0625
    202 C           5.3920   31.3661   20.2263 C.ar    1  UNL1       -0.0498
    203 C           1.4345   31.3607   18.7319 C.ar    1  UNL1        0.0922
    204 C           1.1404   32.6864   18.9312 C.ar    1  UNL1        0.0789
    205 C           4.4457   32.4372   20.1959 C.ar    1  UNL1        0.0264
    206 N           2.2504   33.2221   19.6326 N.ar    1  UNL1       -0.2583
    207 C           2.5461   34.4578   20.0144 C.ar    1  UNL1        0.2651
    208 C           3.9489   34.7421   20.5534 C.ar    1  UNL1        0.0483
    209 O           1.6952   35.3259   20.0001 O.2     1  UNL1       -0.2666
    210 C           4.8602   33.6715   20.6948 C.ar    1  UNL1        0.0065
    211 C           3.1513   32.1985   19.6113 C.ar    1  UNL1        0.1493
    212 C           4.2874   35.9195   21.1071 C.ar    1  UNL1       -0.0481
    213 C           5.5572   36.2177   21.6264 C.ar    1  UNL1       -0.0481
    214 H           3.5282   36.7500   21.1038 H       1  UNL1        0.0625
    215 C           6.0878   33.8646   21.3179 C.ar    1  UNL1        0.0065
    216 N           2.6156   30.9877   19.1917 N.ar    1  UNL1       -0.2270
    217 C          11.8746   34.3197   24.0562 C.ar    1  UNL1        0.0639
    218 C           6.4944   35.1519   21.7150 C.ar    1  UNL1        0.0483
    219 C          10.0580   32.6627   22.8860 C.ar    1  UNL1        0.0920
    220 C           9.8134   34.0451   22.9680 C.ar    1  UNL1        0.0787
    221 C           6.9040   32.7601   21.4619 C.ar    1  UNL1        0.0264
    222 C           8.2212   32.9604   21.9959 C.ar    1  UNL1        0.1493
    223 N           8.6464   34.2677   22.3385 N.ar    1  UNL1       -0.2583
    224 C           7.8510   35.3797   22.2129 C.ar    1  UNL1        0.2651
    225 N           9.0816   31.9615   22.2957 N.ar    1  UNL1       -0.2270
    226 C          11.2435   32.1189   23.3710 C.ar    1  UNL1       -0.0097
    227 C          10.7021   34.9263   23.6122 C.ar    1  UNL1       -0.0122
    228 H          10.4427   35.9070   23.9300 H       1  UNL1        0.0658
    229 O           8.3550   36.4562   22.5418 O.2     1  UNL1       -0.2666
    230 C           6.6334   31.5582   20.8408 C.ar    1  UNL1       -0.0498
    231 H          11.3962   31.0712   23.3767 H       1  UNL1        0.0659
    232 C          12.2202   32.9848   23.8779 C.ar    1  UNL1        0.0743
    233 H           7.3752   30.7649   20.8339 H       1  UNL1        0.0625
    234 N          13.2864   32.5341   24.5092 N.pl3   1  UNL1       -0.2139
    235 H           5.7261   37.1063   22.2508 H       1  UNL1        0.0625
    236 O          12.9280   37.1668   24.4669 O.2     1  UNL1       -0.2695
    237 C          15.0709   33.8851   25.5692 C.ar    1  UNL1        0.0085
    238 C          15.5530   35.1369   25.9467 C.ar    1  UNL1        0.0023
    239 C          15.8162   32.7785   25.9187 C.ar    1  UNL1       -0.0538
    240 C          16.8128   35.2479   26.6188 C.ar    1  UNL1        0.0023
    241 C          17.0020   32.9026   26.6416 C.ar    1  UNL1       -0.0538
    242 C          13.8068   33.7339   24.9126 C.3     1  UNL1        0.1959
    243 H          15.5612   31.8320   25.4862 H       1  UNL1        0.0622
    244 C          17.5102   34.1203   27.0734 C.ar    1  UNL1        0.0085
    245 H          17.5667   32.0094   26.8883 H       1  UNL1        0.0622
    246 C          14.8444   36.3263   25.5694 C.ar    1  UNL1        0.0454
    247 C          17.4134   36.5397   26.7253 C.ar    1  UNL1        0.0454
    248 C          13.4866   36.1729   24.8675 C.2     1  UNL1        0.2535
    249 N          13.0414   34.8988   24.7110 N.am    1  UNL1       -0.2345
    250 C          18.7321   34.3914   27.7499 C.3     1  UNL1        0.1959
    251 N          19.4002   35.5810   27.6198 N.am    1  UNL1       -0.2345
    252 N          19.3396   33.4269   28.4675 N.pl3   1  UNL1       -0.2139
    253 C          20.5734   33.9953   28.5390 C.ar    1  UNL1        0.0743
    254 C          20.6404   35.3101   28.2055 C.ar    1  UNL1        0.0639
    255 C          21.5834   33.4147   29.2454 C.ar    1  UNL1       -0.0097
    256 C          22.8450   35.4777   28.8022 C.ar    1  UNL1        0.0787
    257 C          21.7354   36.1584   28.2773 C.ar    1  UNL1       -0.0122
    258 C          22.7165   34.2120   29.3878 C.ar    1  UNL1        0.0920
    259 H          21.4760   32.3977   29.6480 H       1  UNL1        0.0659
    260 N          23.8314   33.8157   30.0468 N.ar    1  UNL1       -0.2270
    261 C          18.7961   36.7304   27.2769 C.2     1  UNL1        0.2535
    262 N          24.1212   35.9167   28.9887 N.ar    1  UNL1       -0.2583
    263 C          24.6151   34.9009   29.8492 C.ar    1  UNL1        0.1493
    264 C          26.8034   35.9839   29.8511 C.ar    1  UNL1        0.0065
    265 C          28.1379   35.9752   30.1642 C.ar    1  UNL1        0.0065
    266 C          25.9537   35.0210   30.3563 C.ar    1  UNL1        0.0264
    267 C          15.4760   37.6065   25.7051 C.ar    1  UNL1       -0.0483
    268 C          16.7993   37.6420   26.2036 C.ar    1  UNL1       -0.0483
    269 H          17.3843   38.5389   26.1488 H       1  UNL1        0.0625
    270 H          14.9235   38.4421   25.2653 H       1  UNL1        0.0625
    271 H          21.7745   37.1647   27.9503 H       1  UNL1        0.0658
    272 O          19.3059   37.8354   27.3027 O.2     1  UNL1       -0.2695
    273 O          24.2540   37.8384   28.0005 O.2     1  UNL1       -0.2666
    274 C          24.8420   36.9662   28.6144 C.ar    1  UNL1        0.2651
    275 C          26.2920   36.9746   28.9953 C.ar    1  UNL1        0.0483
    276 C          30.4216   37.0470   30.0921 C.ar    1  UNL1        0.2651
    277 C          28.9694   36.9913   29.6801 C.ar    1  UNL1        0.0483
    278 C          27.1695   37.9654   28.4588 C.ar    1  UNL1       -0.0481
    279 C          28.5068   37.9916   28.8146 C.ar    1  UNL1       -0.0481
    280 H          29.1453   38.8465   28.4982 H       1  UNL1        0.0625
    281 H          26.7448   38.6797   27.8612 H       1  UNL1        0.0625
    282 C          28.7040   34.9277   30.9601 C.ar    1  UNL1        0.0264
    283 C          26.5335   33.9401   31.0453 C.ar    1  UNL1       -0.0498
    284 C          30.0930   35.0155   31.3625 C.ar    1  UNL1        0.1493
    285 H          25.8990   33.1385   31.3547 H       1  UNL1        0.0625
    286 H          28.3674   33.1732   31.9618 H       1  UNL1        0.0625
    287 C          27.8809   33.9871   31.4406 C.ar    1  UNL1       -0.0498
    288 O          31.1674   38.0018   29.7637 O.2     1  UNL1       -0.2666
    289 O          35.9429   37.5789   30.3242 O.2     1  UNL1       -0.2666
    290 H          33.5324   37.1255   30.4681 H       1  UNL1        0.0660
    291 H          38.4119   38.1729   29.8500 H       1  UNL1        0.0625
    292 H          40.9102   38.1330   30.1646 H       1  UNL1        0.0625
    293 C          38.8300   37.4769   30.5121 C.ar    1  UNL1       -0.0481
    294 C          40.2112   37.3990   30.6038 C.ar    1  UNL1       -0.0483
    295 N          30.8741   36.0954   30.8969 N.ar    1  UNL1       -0.2583
    296 C          33.3536   36.1908   31.0651 C.ar    1  UNL1       -0.0095
    297 C          36.4814   36.7165   30.9852 C.ar    1  UNL1        0.2651
    298 C          32.1334   35.6643   31.2752 C.ar    1  UNL1        0.0789
    299 C          34.4104   35.4960   31.6195 C.ar    1  UNL1        0.0789
    300 C          31.9149   34.5139   31.9625 C.ar    1  UNL1        0.0922
    301 C          34.2650   34.2867   32.2147 C.ar    1  UNL1        0.0922
    302 C          32.9797   33.7381   32.4063 C.ar    1  UNL1       -0.0067
    303 H          32.7256   32.8685   32.9271 H       1  UNL1        0.0661
    304 N          35.3554   33.6909   32.6796 N.ar    1  UNL1       -0.2270
    305 N          35.7598   35.7020   31.5577 N.ar    1  UNL1       -0.2583
    306 C          36.2925   34.6401   32.3620 C.ar    1  UNL1        0.1493
    307 N          30.7096   34.0278   32.0151 N.ar    1  UNL1       -0.2270
    308 H          40.1157   32.6666   33.7762 H       1  UNL1        0.0622
    309 C          38.5201   35.5523   31.9764 C.ar    1  UNL1        0.0062
    310 C          37.7366   34.5378   32.5761 C.ar    1  UNL1        0.0264
    311 C          38.3327   33.5380   33.2639 C.ar    1  UNL1       -0.0501
    312 C          39.6750   33.4551   33.3097 C.ar    1  UNL1       -0.0538
    313 C          40.4670   34.4033   32.7665 C.ar    1  UNL1        0.0038
    314 H          37.6721   32.8299   33.6654 H       1  UNL1        0.0625
    315 C          39.9452   35.4942   32.1059 C.ar    1  UNL1        0.0023
    316 C          41.9150   34.2796   32.8612 C.3     1  UNL1        0.1660
    317 C          40.7544   36.3920   31.4172 C.ar    1  UNL1        0.0449
    318 C          42.2466   36.2994   31.5109 C.2     1  UNL1        0.2464
    319 C          37.9660   36.5577   31.1565 C.ar    1  UNL1        0.0483
    320 H          42.4639   33.9282   34.5492 H       1  UNL1        0.1434
    321 N          42.6607   33.5343   33.5380 N.3     1  UNL1       -0.2244
    322 N          42.7218   35.2679   32.2318 N.am    1  UNL1       -0.2853
    323 H          43.7040   35.1198   32.2434 H       1  UNL1        0.1513
    324 O          43.0209   37.0577   30.9912 O.2     1  UNL1       -0.2701
@<TRIPOS>BOND
     1    14    10    2
     2     5    10   ar
     3     5     6   ar
     4     5     3   ar
     5     4     7    1
     6    10    11   ar
     7     6     1   ar
     8     6     8   ar
     9     1     2   ar
    10     3     2   ar
    11     3    12   ar
    12     2    86   ar
    13     8     7   ar
    14     8     9   ar
    15     7    37   ar
    16    12    13    1
    17    12    88   ar
    18    86    87    1
    19    86    89   ar
    20    11     9   ar
    21    11    36   ar
    22     9    34   ar
    23    88    89   ar
    24    88    98   ar
    25    37    23    1
    26    37    33   ar
    27    89    90   ar
    28    36    38    1
    29    36    27   ar
    30    34    33   ar
    31    34    28   ar
    32    33    24   ar
    33    27    28   ar
    34    27    35    1
    35    97   101    2
    36    90    95   ar
    37    28    31   ar
    38    98   101   ar
    39    98    95   ar
    40   101   104   ar
    41    24    19   ar
    42    24    29   ar
    43    95    96   ar
    44    19    20   ar
    45    31    29   ar
    46    31    32    2
    47    29    25   ar
    48   106   105    1
    49   104   105   ar
    50   104   100   ar
    51    96   100   ar
    52    96    91   ar
    53   105   107   ar
    54    92    91    1
    55    20    25   ar
    56    20    17   ar
    57   100   102   ar
    58    25    26   ar
    59    91    94   ar
    60    16    17    1
    61   107   103    1
    62   107   108   ar
    63    17    18   ar
    64   102   108   ar
    65   102    99   ar
    66    94    93    1
    67    94    99   ar
    68   108   109    1
    69    99   111    1
    70    26    30    1
    71    26    22   ar
    72   109   110    2
    73   109   112   am
    74    18    22   ar
    75    18    21   ar
    76   111   112    1
    77   111   116    1
    78    22    15   ar
    79   112   117    1
    80    21    53   ar
    81   116   115    1
    82   117   115   ar
    83   117   114   ar
    84   113   114    1
    85   115   125   ar
    86   114   119   ar
    87    15    53   ar
    88    15    55   ar
    89    59    55    2
    90    53    46   ar
    91   127   122    2
    92   125   118    1
    93   125   123   ar
    94   119   123   ar
    95   119   121   ar
    96    55    50   ar
    97   123   120   ar
    98   122   121   ar
    99   122   126   ar
   100   121   124   ar
   101   168   169    1
   102   120   124   ar
   103   124   129   ar
   104   169   126   ar
   105   169   170   ar
   106   126   131   ar
   107    46    41   ar
   108    46    47   ar
   109    48    41    1
   110    50    47   ar
   111    50    56   ar
   112   131   129   ar
   113   131   137   ar
   114   129   132   ar
   115   170   171    1
   116   170   174   ar
   117    41    42   ar
   118    47    45   ar
   119   137   174   ar
   120   137   134   ar
   121   174   173   ar
   122   132   130    1
   123   132   133   ar
   124    57    56    1
   125   134   133   ar
   126   134   136   ar
   127    56    54   ar
   128   133   135    1
   129   173   128   ar
   130   173   172    2
   131   138   136   ar
   132   138   140   ar
   133   136   128   ar
   134   128   139   ar
   135   147   148    1
   136   140   139   ar
   137   140   142   ar
   138   139   182   ar
   139    42    39    1
   140    42    43   ar
   141   142   141    1
   142   142   143   ar
   143   143   144   ar
   144   143   184   ar
   145    45    43   ar
   146    45    49   ar
   147   182   184   ar
   148   182   177    1
   149   144   145   ar
   150   149   150    1
   151   184   181   ar
   152   148   150   ar
   153   148   185   ar
   154    54    49   ar
   155    54    58    1
   156   150   195   ar
   157   145   185   ar
   158   145   181   ar
   159    43    44   ar
   160   185   183   ar
   161   181   175   ar
   162    49    51   ar
   163   175   176    2
   164   175   178   ar
   165   195   187   ar
   166   195   193   ar
   167   183   178   ar
   168   183   187   ar
   169   178   179   ar
   170   187   188   ar
   171   193   146   ar
   172   193   186   ar
   173   146   194   ar
   174    44    40   ar
   175    44    52   ar
   176   179   180    1
   177   179   190   ar
   178   188   190   ar
   179   188   189   ar
   180   186   189   ar
   181   186   191   ar
   182    40    66   ar
   183   190   192    1
   184   194   191   ar
   185   194   199   ar
   186   200   199    1
   187    51    52   ar
   188    51    70    2
   189   189   196    2
   190   191   198   ar
   191    52    71   ar
   192   199   203   ar
   193    66    71   ar
   194    66    68   ar
   195   198   197    1
   196   198   204   ar
   197   203   204   ar
   198   203   216   ar
   199    71    75   ar
   200   204   206   ar
   201   216   211   ar
   202    60    68    1
   203    68    72   ar
   204    75    78    1
   205    75    79   ar
   206   211   206   ar
   207   211   205   ar
   208   206   207   ar
   209   201   202    1
   210   209   207    2
   211   207   208   ar
   212    72    79   ar
   213    72    64   ar
   214    79    80   ar
   215   205   202   ar
   216   205   210   ar
   217   202   230   ar
   218   208   210   ar
   219   208   212   ar
   220   210   215   ar
   221   233   230    1
   222   230   221   ar
   223    64    73   ar
   224    80    73   ar
   225    80    81   ar
   226   214   212    1
   227   212   213   ar
   228    82    81    2
   229   215   221   ar
   230   215   218   ar
   231   221   222   ar
   232    73    65   ar
   233   213   218   ar
   234   213   235    1
   235    81    76   ar
   236   218   224   ar
   237   222   225   ar
   238   222   223   ar
   239   224   223   ar
   240   224   229    2
   241   225   219   ar
   242   223   220   ar
   243    65    77   ar
   244    65    63   ar
   245    76    77   ar
   246    76    74   ar
   247   219   220   ar
   248   219   226   ar
   249    62    63    1
   250    67    74    1
   251   220   227   ar
   252    77    69   ar
   253    63    61   ar
   254    74   151   ar
   255   226   231    1
   256   226   232   ar
   257   227   228    1
   258   227   217   ar
   259   232   217   ar
   260   232   234    1
   261   217   249    1
   262    69    83   ar
   263    69   166   ar
   264    61    83   ar
   265    61    84    1
   266   151   166   ar
   267   151   167    1
   268   236   248    2
   269   234   242    1
   270   249   248   am
   271   249   242    1
   272    83   163   ar
   273   166   165   ar
   274   248   246    1
   275   242   237    1
   276   270   267    1
   277   243   239    1
   278   237   239   ar
   279   237   238   ar
   280   246   267   ar
   281   246   238   ar
   282   163   162   ar
   283   163    85   ar
   284   267   268   ar
   285   165   162   ar
   286   165   164    2
   287   239   241   ar
   288   238   240   ar
   289   269   268    1
   290   268   247   ar
   291   162   158   ar
   292    85   161   ar
   293   240   247   ar
   294   240   244   ar
   295   241   245    1
   296   241   244   ar
   297   247   261    1
   298   244   250    1
   299   158   161   ar
   300   158   159   ar
   301   161   153   ar
   302   261   272    2
   303   261   251   am
   304   251   250    1
   305   251   254    1
   306   250   252    1
   307   281   278    1
   308   271   257    1
   309   273   274    2
   310   160   159    1
   311   159   156   ar
   312   153   152    1
   313   153   154   ar
   314   254   257   ar
   315   254   253   ar
   316   257   256   ar
   317   278   279   ar
   318   278   275   ar
   319   252   253    1
   320   280   279    1
   321   253   255   ar
   322   274   262   ar
   323   274   275   ar
   324   256   262   ar
   325   256   258   ar
   326   279   277   ar
   327   262   263   ar
   328   275   264   ar
   329   156   154   ar
   330   156   157    1
   331   154   155    1
   332   255   258   ar
   333   255   259    1
   334   258   260   ar
   335   277   276   ar
   336   277   265   ar
   337   288   276    2
   338   263   260   ar
   339   263   266   ar
   340   291   293    1
   341   264   265   ar
   342   264   266   ar
   343   276   295   ar
   344   265   282   ar
   345   292   294    1
   346   289   297    2
   347   266   283   ar
   348   290   296    1
   349   293   294   ar
   350   293   319   ar
   351   294   317   ar
   352   295   298   ar
   353   295   284   ar
   354   282   284   ar
   355   282   287   ar
   356   297   319   ar
   357   297   305   ar
   358   324   318    2
   359   283   285    1
   360   283   287   ar
   361   296   298   ar
   362   296   299   ar
   363   319   309   ar
   364   298   300   ar
   365   284   307   ar
   366   317   318    1
   367   317   315   ar
   368   287   286    1
   369   318   322   am
   370   305   299   ar
   371   305   306   ar
   372   299   301   ar
   373   300   307   ar
   374   300   302   ar
   375   309   315   ar
   376   309   310   ar
   377   315   313   ar
   378   301   302   ar
   379   301   304   ar
   380   322   323    1
   381   322   316    1
   382   306   310   ar
   383   306   304   ar
   384   302   303    1
   385   310   311   ar
   386   313   316    1
   387   313   312   ar
   388   316   321    1
   389   311   312   ar
   390   311   314    1
   391   312   308    1
   392   321   320    1
